Circuit: * C:\Users\wojte\Documents\AGH\AGH_sem_4\Technika Mikroprocesorowa 1\Wzmacniacze operacyjne 2\ltspice\przyklad_opamp.asc

Direct Newton iteration for .op point succeeded.

Date: Mon Apr 22 13:31:18 2019
Total elapsed time: 0.214 seconds.

tnom = 27
temp = 27
method = trap
totiter = 18
traniter = 0
tranpoints = 0
accept = 0
rejected = 0
matrix size = 32
fillins = 32
solver = Normal
Matrix Compiler1:     157 opcodes
Matrix Compiler2: 3.12 KB object code size
