Circuit: * C:\Users\wojte\Documents\AGH\AGH_sem_4\Technika Mikroprocesorowa 1\Filtry pasywne 2\E7.asc


Date: Sat Apr 06 20:15:44 2019
Total elapsed time: 0.076 seconds.

tnom = 27
temp = 27
method = trap
totiter = 0
traniter = 0
tranpoints = 0
accept = 0
rejected = 0
matrix size = 4
fillins = 0
solver = Normal

